*SPEF "1481-1998"
*DESIGN "mux"
*DATE "Tue Jun  3 09:41:26 2025"
*VENDOR "Synopsys, Inc."
*PROGRAM "icc2 /home/synopsys_install/icc2/W-2024.09/linux64/nwtn/bin/icc2_exec"
*VERSION "W-2024.09 Aug 25, 2024"
*DESIGN_FLOW "ICC2 SPEF DR"
*DIVIDER /
*DELIMITER :
*BUS_DELIMITER [ ]
*T_UNIT 1 NS
*C_UNIT 1 FF
*R_UNIT 1 OHM
*L_UNIT 1 HENRY

// XY_UNIT 1 UM
// PARASITIC_TECH p2 at 125.000 degree

*NAME_MAP
*1 A[3]
*2 A[2]
*3 A[1]
*4 A[0]
*5 B[3]
*6 B[2]
*7 B[1]
*8 B[0]
*9 C_in
*10 C_out
*11 Clock
*12 SUM[3]
*13 SUM[2]
*14 SUM[1]
*15 SUM[0]
*16 VDD_MUX
*17 VSS_MUX
*18 reg1_reg[0]
*19 reg2_reg[0]
*20 reg2_reg[3]
*21 reg2_reg[2]
*22 reg2_reg[1]
*23 reg1_reg[3]
*24 reg1_reg[2]
*25 reg1_reg[1]
*26 c_in_reg
*27 SUM_reg[0]
*28 SUM_reg[1]
*29 C_out_reg
*30 SUM_reg[2]
*31 SUM_reg[3]
*32 U3
*33 U4
*34 ctmTdsLR_1_461
*35 ctmTdsLR_2_462
*36 ctmTdsLR_1_7
*37 ctmTdsLR_1_449
*38 ctmTdsLR_1_8
*39 ctmTdsLR_1_4
*40 ctmTdsLR_2_3
*41 gre_a_INV_23_inst_466
*42 gre_a_INV_14_inst_467
*43 ctmTdsLR_1_456
*44 ctmTdsLR_2_457
*45 ctmTdsLR_3_451
*46 ctmTdsLR_1_440
*47 U17
*48 U21
*49 U22
*50 U23
*51 U24
*52 U25
*53 U26
*54 U27
*55 U28
*56 ctmTdsLR_2_9
*57 ctmTdsLR_1_5
*58 U31
*59 ctosc_drc_inst_345
*60 ctosc_drc_inst_436
*61 ctmTdsLR_1_437
*62 ctmTdsLR_1_452
*63 U35
*64 U37
*65 gre_a_INV_112_inst_468
*66 U39
*67 ctmTdsLR_3_463
*68 ctmTdsLR_2_453
*69 U42
*70 U43
*71 U44
*72 ctmTdsLR_2_438
*73 ctmTdsLR_3_439
*74 ctmTdsLR_2_441
*75 ctmTdsLR_3_458
*76 U48
*77 U49
*78 ctmTdsLR_1_0
*79 ctmTdsLR_2_1
*80 ctmTdsLR_2_6
*81 ctmTdsLR_1_443
*82 ctmTdsLR_2_444
*83 ctmTdsLR_1_446
*84 ctmTdsLR_2_447
*85 ctmTdsLR_1_454
*86 ctmTdsLR_2_455
*87 ctmTdsLR_4_459
*88 ctmTdsLR_5_460
*89 ctmTdsLR_4_464
*90 ctmTdsLR_5_465
*91 gre_a_INV_23_inst_469
*92 gre_a_INV_23_inst_470
*93 c_in
*94 c_out
*95 n1
*96 ctosc_drc_0
*97 n3
*98 n7
*99 ctosc_drc_1
*100 tmp_net6
*101 n11
*102 n12
*103 n13
*104 n14
*105 tmp_net7
*106 n16
*107 n17
*108 n18
*109 tmp_net8
*110 n20
*111 n21
*112 n22
*113 n23
*114 n24
*115 n25
*116 n26
*117 n27
*118 n28
*119 n29
*120 n30
*121 n31
*122 n32
*123 n33
*124 n34
*125 n35
*126 n36
*127 n37
*128 n39
*129 n40
*130 n41
*131 n42
*132 n43
*133 n44
*134 n45
*135 n47
*136 reg1[3]
*137 reg1[2]
*138 reg1[1]
*139 reg1[0]
*140 reg2[3]
*141 reg2[2]
*142 reg2[1]
*143 tmp_net0
*144 sum_i[3]
*145 sum_i[2]
*146 sum_i[1]
*147 sum_i[0]
*148 tmp_net2
*149 tmp_net3
*150 tmp_net10
*151 tmp_net12
*152 tmp_net15
*153 tmp_net16
*154 tmp_net17
*155 tmp_net18
*156 tmp_net19
*157 tmp_net20
*158 tmp_net21
*159 tmp_net22
*160 tmp_net23
*161 gre_a_INV_23_0
*162 gre_a_INV_14_0
*163 gre_a_INV_112_0
*164 gre_a_INV_23_1
*165 gre_a_INV_23_2

*PORTS

*1 I *C 11.488 0.143
*2 I *C 14.376 0.143
*3 I *C 11.184 0.143
*4 I *C 0.143 2.912
*5 I *C 18.881 22.368
*6 I *C 18.881 17.504
*7 I *C 18.881 8.992
*8 I *C 7.688 0.143
*9 I *C 12.248 28.937
*10 O *C 11.032 28.937
*11 I *C 0.143 6.864
*12 O *C 6.624 16.863
*13 O *C 7.688 16.863
*14 O *C 5.256 12.217
*15 O *C 0.143 5.344
*16 I *C 9.512 14.540
*17 I *C 9.512 14.540

*D_NET *1 0.2845942 //LENGTH 4.449 LUMPCC 0 DR

*CONN
*P *1 I *L 0 *C 11.488 0.258
*I *23:D I *L 0.558146 *C 10.120 3.064
*N *1:2 *C 10.120 3.050
*N *1:3 *C 10.120 0.494
*N *1:4 *C 10.133 0.480
*N *1:5 *C 11.475 0.480
*N *1:6 *C 11.488 0.467

*CAP
0 *1 0.01202974
1 *23:D 0.001
2 *1:2 0.09133048
3 *1:3 0.09247401
4 *1:4 0.0387546
5 *1:5 0.0387546
6 *1:6 0.01025071

*RES
0 *1 *1:6 0.3723215
1 *1:2 *23:D 1
2 *1:3 *1:2 4.566072
3 *1:4 *1:3 0.5
4 *1:6 *1:5 0.5
5 *1:5 *1:4 2.394643

*END

*D_NET *2 0.4034003 //LENGTH 7.038 LUMPCC 0 DR

*CONN
*P *2 I *L 0 *C 14.376 0.258
*I *24:D I *L 0.558146 *C 13.768 6.408
*N *2:2 *C 13.768 6.396
*N *2:3 *C 13.768 6.256
*N *2:4 *C 13.782 6.256
*N *2:5 *C 14.363 6.256
*N *2:6 *C 14.376 6.243

*CAP
0 *2 0.172916
1 *24:D 0.001
2 *2:2 0.006979621
3 *2:3 0.008123152
4 *2:4 0.02162218
5 *2:5 0.02162229
6 *2:6 0.1711371

*RES
0 *2 *2:6 10.68661
1 *2:2 *24:D 1
2 *2:3 *2:2 0.2325
3 *2:4 *2:3 0.5
4 *2:5 *2:4 1.0375
5 *2:6 *2:5 0.5

*END

*D_NET *3 0.5099877 //LENGTH 6.686 LUMPCC 0 DR

*CONN
*P *3 I *L 0 *C 11.184 0.258
*I *25:D I *L 0.558146 *C 13.738 4.280
*N *3:2 *C 11.199 4.280
*N *3:3 *C 11.184 4.267

*CAP
0 *3 0.1456544
1 *25:D 0.1109336
2 *3:2 0.1093395
3 *3:3 0.1440603

*RES
0 *3 *3:3 7.158035
1 *3:2 *25:D 5.078
2 *3:3 *3:2 1

*END

*D_NET *4 0.3354026 //LENGTH 5.188 LUMPCC 0 DR

*CONN
*P *4 I *L 0 *C 0.258 2.912
*I *18:D I *L 0.558146 *C 1.730 6.408
*N *4:2 *C 1.015 6.408
*N *4:3 *C 1.000 6.395
*N *4:4 *C 1.000 2.925
*N *4:5 *C 0.987 2.912

*CAP
0 *4 0.02405444
1 *18:D 0.03436841
2 *4:2 0.03277428
3 *4:3 0.1110575
4 *4:4 0.1108726
5 *4:5 0.02227541

*RES
0 *4 *4:5 1.300893
1 *4:2 *18:D 1.43
2 *4:3 *4:2 1
3 *4:4 *4:3 6.194643
4 *4:5 *4:4 0.5

*END

*D_NET *5 0.7684352 //LENGTH 11.164 LUMPCC 0 DR

*CONN
*P *5 I *L 0 *C 18.766 22.368
*I *20:D I *L 0.558146 *C 13.920 16.440
*N *5:2 *C 13.920 16.440
*N *5:3 *C 13.920 16.579
*N *5:4 *C 13.934 16.592
*N *5:5 *C 15.427 16.592
*N *5:6 *C 15.440 16.605
*N *5:7 *C 15.440 22.355
*N *5:8 *C 15.454 22.368

*CAP
0 *5 0.1087446
1 *20:D 0.001
2 *5:2 0.006713266
3 *5:3 0.007856797
4 *5:4 0.04895046
5 *5:5 0.04895046
6 *5:6 0.219627
7 *5:7 0.219627
8 *5:8 0.1069656

*RES
0 *5 *5:8 5.915179
1 *5:2 *20:D 1
2 *5:3 *5:2 0.2325
3 *5:4 *5:3 0.5
4 *5:6 *5:5 0.5
5 *5:5 *5:4 2.666071
6 *5:7 *5:6 10.26607
7 *5:8 *5:7 0.5

*END

*D_NET *6 0.5760053 //LENGTH 8.428 LUMPCC 0 DR

*CONN
*P *6 I *L 0 *C 18.766 17.504
*I *21:D I *L 0.558146 *C 13.920 14.312
*N *6:2 *C 13.920 14.312
*N *6:3 *C 13.920 14.452
*N *6:4 *C 13.934 14.464
*N *6:5 *C 14.819 14.464
*N *6:6 *C 14.832 14.478
*N *6:7 *C 14.832 17.491
*N *6:8 *C 14.846 17.504

*CAP
0 *6 0.1348204
1 *21:D 0.001
2 *6:2 0.008376607
3 *6:3 0.009520139
4 *6:4 0.02920611
5 *6:5 0.02920611
6 *6:6 0.1154174
7 *6:7 0.1154174
8 *6:8 0.1330413

*RES
0 *6 *6:8 7.000894
1 *6:2 *21:D 1
2 *6:3 *6:2 0.2325
3 *6:4 *6:3 0.5
4 *6:6 *6:5 0.5
5 *6:5 *6:4 1.580357
6 *6:7 *6:6 5.380358
7 *6:8 *6:7 0.5

*END

*D_NET *7 0.3675539 //LENGTH 5.771 LUMPCC 0 DR

*CONN
*P *7 I *L 0 *C 18.766 8.992
*I *22:D I *L 0.558146 *C 13.920 9.752
*N *7:2 *C 13.920 9.739
*N *7:3 *C 13.920 9.005
*N *7:4 *C 13.934 8.992

*CAP
0 *7 0.1514512
1 *22:D 0.001
2 *7:2 0.03214344
3 *7:3 0.03328698
4 *7:4 0.1496722

*RES
0 *7 *7:4 8.629465
1 *7:2 *22:D 1
2 *7:3 *7:2 1.308929
3 *7:4 *7:3 0.5

*END

*D_NET *8 0.3185223 //LENGTH 5.214 LUMPCC 0 DR

*CONN
*P *8 I *L 0 *C 7.688 0.258
*I *19:D I *L 0.558146 *C 5.560 3.064
*N *8:2 *C 5.560 3.052
*N *8:3 *C 5.560 2.912
*N *8:4 *C 5.574 2.912
*N *8:5 *C 7.675 2.912
*N *8:6 *C 7.688 2.899

*CAP
0 *8 0.08769274
1 *19:D 0.001
2 *8:2 0.006419718
3 *8:3 0.00756325
4 *8:4 0.06496643
5 *8:5 0.06496643
6 *8:6 0.0859137

*RES
0 *8 *8:6 4.715178
1 *8:2 *19:D 1
2 *8:3 *8:2 0.2325
3 *8:4 *8:3 0.5
4 *8:6 *8:5 0.5
5 *8:5 *8:4 3.751786

*END

*D_NET *9 1.111972 //LENGTH 18.281 LUMPCC 0 DR

*CONN
*P *9 I *L 0 *C 12.248 28.822
*I *26:D I *L 0.558146 *C 2.064 21.000
*N *9:2 *C 2.064 21.014
*N *9:3 *C 2.064 22.355
*N *9:4 *C 2.078 22.368
*N *9:5 *C 12.235 22.368
*N *9:6 *C 12.248 22.382

*CAP
0 *9 0.1835031
1 *26:D 0.001
2 *9:2 0.05432292
3 *9:3 0.05546645
4 *9:4 0.3179776
5 *9:5 0.3179777
6 *9:6 0.1817242

*RES
0 *9 *9:6 11.50089
1 *9:2 *26:D 1
2 *9:3 *9:2 2.394643
3 *9:4 *9:3 0.5
4 *9:5 *9:4 18.1375
5 *9:6 *9:5 0.5

*END

*D_NET *10 0.3175185 //LENGTH 5.361 LUMPCC 0 DR

*CONN
*I *29:Q O *L 0 *C 9.968 24.800
*P *10 O *L 0 *C 11.032 28.822
*N *10:2 *C 11.032 26.030
*N *10:3 *C 11.019 26.016
*N *10:4 *C 9.982 26.016
*N *10:5 *C 9.968 26.003
*N *10:6 *C 9.968 24.814

*CAP
0 *29:Q 0.001
1 *10 0.08782613
2 *10:2 0.0860471
3 *10:3 0.03083227
4 *10:4 0.03083227
5 *10:5 0.04106212
6 *10:6 0.03991858

*RES
0 *29:Q *10:6 1
1 *10:6 *10:5 2.123214
2 *10:5 *10:4 0.5
3 *10:4 *10:3 1.851786
4 *10:2 *10 4.986607
5 *10:3 *10:2 0.5

*END

*D_NET *11 0.275923 //LENGTH 4.099 LUMPCC 0 DR

*CONN
*P *11 I *L 0 *C 0.258 6.864
*I *60:A I *L 0.578227 *C 3.280 7.776
*N *11:2 *C 3.280 7.763
*N *11:3 *C 3.280 6.878
*N *11:4 *C 3.267 6.864

*CAP
0 *11 0.103733
1 *60:A 0.001
2 *11:2 0.03404625
3 *11:3 0.03518978
4 *11:4 0.1019539

*RES
0 *11 *11:4 5.372322
1 *11:2 *60:A 1
2 *11:3 *11:2 1.580357
3 *11:4 *11:3 0.5

*END

*D_NET *12 0.2034638 //LENGTH 3.385 LUMPCC 0 DR

*CONN
*I *31:Q O *L 0 *C 5.864 19.328
*P *12 O *L 0 *C 6.624 16.978
*N *12:2 *C 6.624 17.187
*N *12:3 *C 6.611 17.200
*N *12:4 *C 5.878 17.200
*N *12:5 *C 5.864 17.213
*N *12:6 *C 5.864 19.315

*CAP
0 *31:Q 0.001
1 *12 0.009980567
2 *12:2 0.008201532
3 *12:3 0.02183273
4 *12:4 0.02183273
5 *12:5 0.0708799
6 *12:6 0.06973637

*RES
0 *31:Q *12:6 1
1 *12:6 *12:5 3.751786
2 *12:5 *12:4 0.5
3 *12:4 *12:3 1.308929
4 *12:2 *12 0.3723215
5 *12:3 *12:2 0.5

*END

*D_NET *13 0.5571933 //LENGTH 8.249 LUMPCC 0 DR

*CONN
*I *30:Q O *L 0 *C 9.968 22.672
*P *13 O *L 0 *C 7.688 16.978
*N *13:2 *C 7.688 21.747
*N *13:3 *C 7.702 21.760
*N *13:4 *C 9.955 21.760
*N *13:5 *C 9.968 21.774
*N *13:6 *C 9.968 22.659

*CAP
0 *30:Q 0.001
1 *13 0.1571889
2 *13:2 0.1554098
3 *13:3 0.08075908
4 *13:4 0.08075908
5 *13:5 0.04161
6 *13:6 0.04046646

*RES
0 *30:Q *13:6 1
1 *13:6 *13:5 1.580357
2 *13:5 *13:4 0.5
3 *13:4 *13:3 4.023214
4 *13:2 *13 8.515179
5 *13:3 *13:2 0.5

*END

*D_NET *14 0.6318954 //LENGTH 7.945 LUMPCC 0 DR

*CONN
*I *28:Q O *L 0 *C 4.952 4.736
*P *14 O *L 0 *C 5.256 12.102
*N *14:2 *C 5.256 6.878
*N *14:3 *C 5.243 6.864
*N *14:4 *C 4.966 6.864
*N *14:5 *C 4.952 6.851
*N *14:6 *C 4.952 4.750

*CAP
0 *28:Q 0.001
1 *14 0.2140257
2 *14:2 0.2122467
3 *14:3 0.01162831
4 *14:4 0.01162831
5 *14:5 0.09125495
6 *14:6 0.09011143

*RES
0 *28:Q *14:6 1
1 *14:6 *14:5 3.751786
2 *14:5 *14:4 0.5
3 *14:4 *14:3 0.4946429
4 *14:2 *14 9.329464
5 *14:3 *14:2 0.5

*END

*D_NET *15 0.6496727 //LENGTH 9.183 LUMPCC 0 DR

*CONN
*I *27:Q O *L 0 *C 5.104 9.296
*P *15 O *L 0 *C 0.258 5.344
*N *15:2 *C 0.682 5.344
*N *15:3 *C 0.696 5.357
*N *15:4 *C 0.696 7.459
*N *15:5 *C 0.710 7.472
*N *15:6 *C 5.091 7.472
*N *15:7 *C 5.104 7.486
*N *15:8 *C 5.104 9.283

*CAP
0 *27:Q 0.001
1 *15 0.01636221
2 *15:2 0.01458327
3 *15:3 0.06302062
4 *15:4 0.06302062
5 *15:5 0.1456605
6 *15:6 0.1456604
7 *15:7 0.1007543
8 *15:8 0.09961075

*RES
0 *27:Q *15:8 1
1 *15:8 *15:7 3.208929
2 *15:7 *15:6 0.5
3 *15:6 *15:5 7.823215
4 *15:5 *15:4 0.5
5 *15:4 *15:3 3.751786
6 *15:2 *15 0.7580358
7 *15:3 *15:2 0.5

*END

*D_NET *93 1.659784 //LENGTH 24.099 LUMPCC 0 DR

*CONN
*I *26:Q O *L 0 *C 5.408 21.456
*I *65:A I *L 0.604022 *C 10.850 14.464
*I *71:A2 I *L 0.483357 *C 10.551 9.625
*I *37:A1 I *L 0.564384 *C 8.144 8.080
*I *91:A I *L 0.604022 *C 8.144 9.600
*N *93:5 *C 8.144 9.418
*N *93:6 *C 8.144 9.588
*N *93:7 *C 8.158 9.600
*N *93:8 *C 8.144 7.948
*N *93:9 *C 8.144 8.068
*N *93:10 *C 8.158 8.080
*N *93:11 *C 9.498 8.080
*N *93:12 *C 9.512 8.094
*N *93:13 *C 9.512 9.587
*N *93:14 *C 9.512 9.600
*N *93:15 *C 9.803 9.600
*N *93:16 *C 9.816 9.600
*N *93:17 *C 9.816 9.614
*N *93:18 *C 10.576 14.282
*N *93:19 *C 10.591 14.464
*N *93:20 *C 10.576 14.452
*N *93:21 *C 10.562 14.464
*N *93:22 *C 9.830 14.464
*N *93:23 *C 9.816 14.464
*N *93:24 *C 9.816 19.011
*N *93:25 *C 9.803 19.024
*N *93:26 *C 5.421 19.024
*N *93:27 *C 5.408 19.038
*N *93:28 *C 5.408 21.443

*CAP
0 *26:Q 0.001
1 *65:A 0.01583663
2 *71:A2 0.03933662
3 *37:A1 0.001
4 *91:A 0.001
5 *93:5 0.01117562
6 *93:6 0.00647402
7 *93:7 0.05247093
8 *93:8 0.01289663
9 *93:9 0.006712507
10 *93:10 0.04405427
11 *93:11 0.04553689
12 *93:12 0.04900434
13 *93:13 0.04900434
14 *93:14 0.06590237
15 *93:15 0.01016978
16 *93:16 0.04499658
17 *93:17 0.1785383
18 *93:18 0.01207227
19 *93:19 0.01424251
20 *93:20 0.008699106
21 *93:21 0.02361011
22 *93:22 0.02361011
23 *93:23 0.3311742
24 *93:24 0.1477802
25 *93:25 0.147753
26 *93:26 0.147753
27 *93:27 0.08456156
28 *93:28 0.08341804

*RES
0 *26:Q *93:28 1
1 *93:23 *93:22 0.5
2 *93:23 *93:17 8.661608
3 *93:22 *93:21 1.308929
4 *93:20 *93:19 1
5 *93:20 *93:18 0.2825
6 *93:21 *93:20 0.5
7 *93:19 *65:A 0.5180001
8 *93:16 *71:A2 1.47
9 *93:17 *93:16 1
10 *93:17 *93:15 0.5
11 *93:15 *93:14 0.5187501
12 *93:6 *91:A 1
13 *93:6 *93:5 0.2825001
14 *93:7 *93:6 0.5
15 *93:14 *93:13 0.5
16 *93:14 *93:7 2.41875
17 *93:13 *93:12 2.666071
18 *93:11 *93:10 2.394643
19 *93:12 *93:11 0.5
20 *93:9 *37:A1 1
21 *93:9 *93:8 0.1991667
22 *93:10 *93:9 0.5
23 *93:24 *93:23 8.118751
24 *93:25 *93:24 0.5
25 *93:27 *93:26 0.5
26 *93:26 *93:25 7.823215
27 *93:28 *93:27 4.294643

*END

*D_NET *94 0.2902029 //LENGTH 5.052 LUMPCC 0 DR

*CONN
*I *77:Y O *L 0 *C 11.032 24.648
*I *29:D I *L 0.558146 *C 6.624 24.344
*N *94:2 *C 6.624 24.344
*N *94:3 *C 6.624 24.484
*N *94:4 *C 6.638 24.496
*N *94:5 *C 11.019 24.496
*N *94:6 *C 11.032 24.496
*N *94:7 *C 11.032 24.636

*CAP
0 *77:Y 0.001
1 *29:D 0.001
2 *94:2 0.007600697
3 *94:3 0.008744229
4 *94:4 0.1289849
5 *94:5 0.1289849
6 *94:6 0.007515839
7 *94:7 0.006372307

*RES
0 *77:Y *94:7 1
1 *94:2 *29:D 1
2 *94:3 *94:2 0.2325
3 *94:4 *94:3 0.5
4 *94:6 *94:5 0.5
5 *94:5 *94:4 7.823214
6 *94:7 *94:6 0.2325

*END

*D_NET *95 0.3773256 //LENGTH 4.800 LUMPCC 0 DR

*CONN
*I *85:Y O *L 0 *C 12.552 19.784
*I *90:A I *L 0.604022 *C 13.282 21.152
*I *33:A1 I *L 0.564384 *C 12.400 22.672
*N *95:3 *C 12.400 22.671
*N *95:4 *C 12.400 20.848
*N *95:5 *C 12.552 20.848
*N *95:6 *C 13.160 21.152
*N *95:7 *C 13.160 21.151
*N *95:8 *C 13.160 20.558
*N *95:9 *C 13.147 20.544
*N *95:10 *C 12.566 20.544
*N *95:11 *C 12.552 20.544
*N *95:12 *C 12.552 19.797

*CAP
0 *85:Y 0.001
1 *90:A 0.008918536
2 *33:A1 0.001
3 *95:3 0.07080983
4 *95:4 0.08061984
5 *95:5 0.02021825
6 *95:6 0.01399923
7 *95:7 0.03171533
8 *95:8 0.03153042
9 *95:9 0.02519228
10 *95:10 0.02519228
11 *95:11 0.04080196
12 *95:12 0.02632763

*RES
0 *85:Y *95:12 1
1 *95:11 *95:10 0.5
2 *95:11 *95:5 0.5428572
3 *95:10 *95:9 1.0375
4 *95:8 *95:7 1.059821
5 *95:9 *95:8 0.5
6 *95:6 *90:A 0.244
7 *95:7 *95:6 1
8 *95:12 *95:11 1.333036
9 *95:3 *33:A1 1
10 *95:4 *95:3 3.255357
11 *95:5 *95:4 0.2714286

*END

*D_NET *96 5.098309 //LENGTH 71.481 LUMPCC 0 DR

*CONN
*I *59:Y O *L 0 *C 6.743 9.748
*I *18:CLK I *L 0.714381 *C 2.064 5.496
*I *28:CLK I *L 0.714381 *C 1.912 5.192
*I *19:CLK I *L 0.714381 *C 5.864 2.152
*I *27:CLK I *L 0.714381 *C 2.064 8.840
*I *30:CLK I *L 0.714381 *C 6.928 22.216
*I *29:CLK I *L 0.714381 *C 6.928 25.256
*I *31:CLK I *L 0.714381 *C 2.824 18.872
*I *26:CLK I *L 0.714381 *C 2.368 21.912
*I *24:CLK I *L 0.714381 *C 14.072 5.496
*I *25:CLK I *L 0.714381 *C 14.072 5.192
*I *23:CLK I *L 0.714381 *C 10.424 2.152
*I *21:CLK I *L 0.714381 *C 14.224 15.224
*I *20:CLK I *L 0.714381 *C 14.224 15.528
*I *22:CLK I *L 0.714381 *C 14.224 8.840
*N *96:15 *C 14.224 8.854
*N *96:16 *C 14.224 9.283
*N *96:17 *C 14.211 9.296
*N *96:18 *C 14.224 15.514
*N *96:19 *C 14.224 15.238
*N *96:20 *C 14.224 15.085
*N *96:21 *C 14.211 15.072
*N *96:22 *C 13.630 15.072
*N *96:23 *C 13.616 15.059
*N *96:24 *C 13.616 9.309
*N *96:25 *C 13.616 9.296
*N *96:26 *C 10.424 2.166
*N *96:27 *C 14.072 5.206
*N *96:28 *C 14.072 5.495
*N *96:29 *C 14.072 5.636
*N *96:30 *C 14.059 5.648
*N *96:31 *C 10.438 5.648
*N *96:32 *C 10.424 5.648
*N *96:33 *C 10.424 9.283
*N *96:34 *C 10.424 9.296
*N *96:35 *C 2.368 21.899
*N *96:36 *C 2.368 20.861
*N *96:37 *C 2.381 20.848
*N *96:38 *C 2.811 20.848
*N *96:39 *C 2.824 20.835
*N *96:40 *C 2.824 18.886
*N *96:41 *C 2.824 20.240
*N *96:42 *C 2.838 20.240
*N *96:43 *C 6.928 25.242
*N *96:44 *C 6.928 22.216
*N *96:45 *C 6.928 20.254
*N *96:46 *C 6.928 20.240
*N *96:47 *C 8.587 20.240
*N *96:48 *C 8.600 20.227
*N *96:49 *C 8.600 9.309
*N *96:50 *C 8.600 9.296
*N *96:51 *C 2.064 8.840
*N *96:52 *C 2.064 8.979
*N *96:53 *C 2.078 8.992
*N *96:54 *C 5.682 2.304
*N *96:55 *C 5.864 2.152
*N *96:56 *C 5.864 2.292
*N *96:57 *C 5.852 2.304
*N *96:58 *C 5.864 2.317
*N *96:59 *C 5.864 5.635
*N *96:60 *C 5.851 5.648
*N *96:61 *C 1.912 5.206
*N *96:62 *C 1.912 5.344
*N *96:63 *C 2.064 5.344
*N *96:64 *C 2.064 5.495
*N *96:65 *C 2.064 5.636
*N *96:66 *C 2.078 5.648
*N *96:67 *C 4.344 5.648
*N *96:68 *C 4.344 5.662
*N *96:69 *C 4.344 8.979
*N *96:70 *C 4.344 8.993
*N *96:71 *C 4.344 9.296
*N *96:72 *C 6.928 9.296
*N *96:73 *C 6.928 9.309
*N *96:74 *C 6.928 9.739
*N *96:75 *C 6.916 9.752

*CAP
0 *59:Y 0.01223721
1 *18:CLK 0.001
2 *28:CLK 0.001
3 *19:CLK 0.001
4 *27:CLK 0.001
5 *30:CLK 0.001
6 *29:CLK 0.001
7 *31:CLK 0.001
8 *26:CLK 0.001
9 *24:CLK 0.001
10 *25:CLK 0.001
11 *23:CLK 0.001
12 *21:CLK 0.001
13 *20:CLK 0.001
14 *22:CLK 0.001
15 *96:15 0.02818274
16 *96:16 0.02932627
17 *96:17 0.0197407
18 *96:18 0.01906724
19 *96:19 0.03322027
20 *96:20 0.012374
21 *96:21 0.02157198
22 *96:22 0.02157198
23 *96:23 0.250872
24 *96:24 0.250872
25 *96:25 0.1286815
26 *96:26 0.1567142
27 *96:27 0.01422679
28 *96:28 0.02520435
29 *96:29 0.009198521
30 *96:30 0.1264809
31 *96:31 0.1264809
32 *96:32 0.3328103
33 *96:33 0.1731735
34 *96:34 0.177859
35 *96:35 0.05110579
36 *96:36 0.05224932
37 *96:37 0.0176191
38 *96:38 0.0176191
39 *96:39 0.02280099
40 *96:40 0.04791363
41 *96:41 0.07363718
42 *96:42 0.1456445
43 *96:43 0.115658
44 *96:44 0.2094126
45 *96:45 0.09197562
46 *96:46 0.2081503
47 *96:47 0.06072692
48 *96:48 0.3183411
49 *96:49 0.3183411
50 *96:50 0.1277575
51 *96:51 0.007560071
52 *96:52 0.008703602
53 *96:53 0.07817059
54 *96:54 0.009297743
55 *96:55 0.006419718
56 *96:56 0.00756325
57 *96:57 0.005739775
58 *96:58 0.1013621
59 *96:59 0.1013621
60 *96:60 0.05146186
61 *96:61 0.006873225
62 *96:62 0.01718211
63 *96:63 0.01624971
64 *96:64 0.01593045
65 *96:65 0.008210589
66 *96:66 0.0728073
67 *96:67 0.1260482
68 *96:68 0.1077894
69 *96:69 0.1077894
70 *96:70 0.08899923
71 *96:71 0.09721737
72 *96:72 0.143449
73 *96:73 0.01923832
74 *96:74 0.01942323
75 *96:75 0.01064308

*RES
0 *59:Y *96:75 0.2883334
1 *96:18 *20:CLK 1
2 *96:19 *21:CLK 1
3 *96:19 *96:18 0.4946429
4 *96:28 *24:CLK 1
5 *96:28 *96:27 0.5169643
6 *96:27 *25:CLK 1
7 *96:16 *96:15 0.7660714
8 *96:17 *96:16 0.5
9 *96:15 *22:CLK 1
10 *96:20 *96:19 0.255
11 *96:21 *96:20 0.5
12 *96:23 *96:22 0.5
13 *96:22 *96:21 1.0375
14 *96:24 *96:23 10.26607
15 *96:25 *96:24 0.5
16 *96:25 *96:17 1.061607
17 *96:33 *96:32 6.490179
18 *96:34 *96:33 0.5
19 *96:34 *96:25 5.700001
20 *96:29 *96:28 0.2341667
21 *96:30 *96:29 0.5
22 *96:32 *96:31 0.5
23 *96:32 *96:26 6.21875
24 *96:31 *96:30 6.466072
25 *96:26 *23:CLK 1
26 *96:50 *96:49 0.5
27 *96:50 *96:34 3.257143
28 *96:49 *96:48 19.49465
29 *96:47 *96:46 2.961607
30 *96:48 *96:47 0.5
31 *96:43 *29:CLK 1
32 *96:44 *30:CLK 1
33 *96:44 *96:43 5.404465
34 *96:45 *96:44 3.504464
35 *96:46 *96:45 0.5
36 *96:46 *96:42 7.304464
37 *96:73 *96:72 0.5
38 *96:72 *96:71 4.614286
39 *96:72 *96:50 2.985714
40 *96:75 *96:74 1
41 *96:74 *96:73 0.7660715
42 *96:60 *96:59 0.5
43 *96:59 *96:58 5.923214
44 *96:57 *96:56 0.5
45 *96:57 *96:54 0.2825
46 *96:58 *96:57 0.5
47 *96:56 *96:55 0.2325
48 *96:55 *19:CLK 1
49 *96:70 *96:69 0.5
50 *96:70 *96:53 4.047322
51 *96:69 *96:68 5.923214
52 *96:67 *96:66 4.047322
53 *96:67 *96:60 2.690179
54 *96:68 *96:67 0.5
55 *96:41 *96:40 2.41875
56 *96:41 *96:39 1.061607
57 *96:42 *96:41 0.5
58 *96:40 *31:CLK 1
59 *96:39 *96:38 0.5
60 *96:38 *96:37 0.7660714
61 *96:36 *96:35 1.851786
62 *96:37 *96:36 0.5
63 *96:35 *26:CLK 1
64 *96:52 *96:51 0.2325
65 *96:53 *96:52 0.5
66 *96:51 *27:CLK 1
67 *96:65 *96:64 0.2341667
68 *96:66 *96:65 0.5
69 *96:64 *18:CLK 1
70 *96:64 *96:63 0.2696429
71 *96:61 *28:CLK 1
72 *96:62 *96:61 0.2473214
73 *96:63 *96:62 0.2714286
74 *96:71 *96:70 0.5410715

*END

*D_NET *97 0.5561565 //LENGTH 7.478 LUMPCC 0 DR

*CONN
*I *32:Y O *L 0 *C 12.111 12.792
*I *51:A2 I *L 0.483357 *C 10.880 16.288
*I *68:A1 I *L 0.564384 *C 11.640 11.424
*N *97:3 *C 11.654 11.424
*N *97:4 *C 11.792 11.424
*N *97:5 *C 10.880 16.287
*N *97:6 *C 10.880 12.350
*N *97:7 *C 10.894 12.336
*N *97:8 *C 11.779 12.336
*N *97:9 *C 11.792 12.336
*N *97:10 *C 12.247 12.336
*N *97:11 *C 12.248 12.336
*N *97:12 *C 12.248 12.792

*CAP
0 *32:Y 0.009867658
1 *51:A2 0.001
2 *68:A1 0.001
3 *97:3 0.005142107
4 *97:4 0.04831827
5 *97:5 0.1449911
6 *97:6 0.1460018
7 *97:7 0.03482094
8 *97:8 0.03482094
9 *97:9 0.0574642
10 *97:10 0.01739551
11 *97:11 0.02476574
12 *97:12 0.03056826

*RES
0 *32:Y *97:12 0.274
1 *97:11 *97:10 1
2 *97:10 *97:9 0.8125001
3 *97:3 *68:A1 1
4 *97:9 *97:8 0.5
5 *97:9 *97:4 1.628572
6 *97:8 *97:7 1.580357
7 *97:6 *97:5 7.03125
8 *97:7 *97:6 0.5
9 *97:5 *51:A2 1
10 *97:12 *97:11 0.9120002
11 *97:4 *97:3 0.2473214

*END

*D_NET *98 0.7085677 //LENGTH 8.328 LUMPCC 0 DR

*CONN
*I *19:Q O *L 0 *C 8.904 2.608
*I *92:A I *L 0.604022 *C 10.576 4.432
*I *81:A2 I *L 0.483357 *C 10.728 7.776
*N *98:3 *C 8.904 2.426
*N *98:4 *C 10.728 7.775
*N *98:5 *C 10.576 4.418
*N *98:6 *C 10.576 3.824
*N *98:7 *C 10.728 3.824
*N *98:8 *C 10.728 2.622
*N *98:9 *C 10.715 2.608
*N *98:10 *C 8.918 2.608
*N *98:11 *C 8.904 2.595

*CAP
0 *19:Q 0.001
1 *92:A 0.001
2 *81:A2 0.001
3 *98:3 0.01016327
4 *98:4 0.1763371
5 *98:5 0.04579039
6 *98:6 0.05571829
7 *98:7 0.245907
8 *98:8 0.05799586
9 *98:9 0.05409703
10 *98:10 0.05409703
11 *98:11 0.005461668

*RES
0 *19:Q *98:11 1
1 *98:4 *81:A2 1
2 *98:5 *92:A 1
3 *98:8 *98:7 2.147322
4 *98:9 *98:8 0.5
5 *98:11 *98:10 0.5
6 *98:11 *98:3 0.2825
7 *98:10 *98:9 3.208929
8 *98:6 *98:5 1.061607
9 *98:7 *98:6 0.2714286
10 *98:7 *98:4 7.055357

*END

*D_NET *99 0.3021497 //LENGTH 3.783 LUMPCC 0 DR

*CONN
*I *60:Y O *L 0 *C 4.070 7.626
*I *59:A I *L 0.753714 *C 5.712 9.600
*N *99:2 *C 5.712 9.587
*N *99:3 *C 5.712 7.638
*N *99:4 *C 5.697 7.624

*CAP
0 *60:Y 0.07406323
1 *59:A 0.001
2 *99:2 0.07664444
3 *99:3 0.07797288
4 *99:4 0.0724691

*RES
0 *60:Y *99:4 3.254
1 *99:2 *59:A 1
2 *99:4 *99:3 1
3 *99:3 *99:2 3.480357

*END

*D_NET *100 0.3226113 //LENGTH 4.135 LUMPCC 0 DR

*CONN
*I *72:Y O *L 0 *C 6.472 6.408
*I *61:A1 I *L 0.564384 *C 9.634 5.977
*N *100:2 *C 9.360 5.770
*N *100:3 *C 9.375 5.952
*N *100:4 *C 9.360 5.940
*N *100:5 *C 9.347 5.952
*N *100:6 *C 6.486 5.952
*N *100:7 *C 6.472 5.966
*N *100:8 *C 6.472 6.395

*CAP
0 *72:Y 0.001
1 *61:A1 0.0162427
2 *100:2 0.0172416
3 *100:3 0.01464858
4 *100:4 0.01386844
5 *100:5 0.1121669
6 *100:6 0.1121669
7 *100:7 0.01820988
8 *100:8 0.01706635

*RES
0 *72:Y *100:8 1
1 *100:3 *61:A1 0.5180001
2 *100:4 *100:3 1
3 *100:4 *100:2 0.2825
4 *100:5 *100:4 0.5
5 *100:7 *100:6 0.5
6 *100:6 *100:5 5.108929
7 *100:8 *100:7 0.7660714

*END

*D_NET *101 0.2208672 //LENGTH 2.864 LUMPCC 0 DR

*CONN
*I *58:Y O *L 0 *C 16.464 11.272
*I *48:A2 I *L 0.483357 *C 14.224 11.120
*N *101:2 *C 14.224 10.988
*N *101:3 *C 14.224 11.107
*N *101:4 *C 14.238 11.120
*N *101:5 *C 16.187 11.120
*N *101:6 *C 16.200 11.120
*N *101:7 *C 16.200 11.260
*N *101:8 *C 16.215 11.272

*CAP
0 *58:Y 0.02005078
1 *48:A2 0.001
2 *101:2 0.01286179
3 *101:3 0.006810506
4 *101:4 0.0708998
5 *101:5 0.07238232
6 *101:6 0.00911024
7 *101:7 0.009295148
8 *101:8 0.01845665

*RES
0 *58:Y *101:8 0.4980001
1 *101:3 *48:A2 1
2 *101:3 *101:2 0.1991667
3 *101:4 *101:3 0.5
4 *101:6 *101:5 0.5
5 *101:5 *101:4 3.480358
6 *101:8 *101:7 1
7 *101:7 *101:6 0.2325

*END

*D_NET *102 0.1423609 //LENGTH 1.937 LUMPCC 0 DR

*CONN
*I *79:Y O *L 0 *C 15.440 11.272
*I *48:A1 I *L 0.564384 *C 14.072 11.424
*N *102:2 *C 14.072 11.292
*N *102:3 *C 14.072 11.412
*N *102:4 *C 14.086 11.424
*N *102:5 *C 15.427 11.424
*N *102:6 *C 15.440 11.412
*N *102:7 *C 15.440 11.272

*CAP
0 *79:Y 0.001
1 *48:A1 0.001
2 *102:2 0.01023605
3 *102:3 0.004051923
4 *102:4 0.05034294
5 *102:5 0.05182546
6 *102:6 0.01252402
7 *102:7 0.01138049

*RES
0 *79:Y *102:7 1
1 *102:3 *48:A1 1
2 *102:3 *102:2 0.1991667
3 *102:4 *102:3 0.5
4 *102:6 *102:5 0.5
5 *102:5 *102:4 2.394643
6 *102:7 *102:6 0.2325

*END

*D_NET *103 0.3976138 //LENGTH 4.540 LUMPCC 0 DR

*CONN
*I *40:Y O *L 0 *C 10.576 12.792
*I *32:A3 I *L 0.535888 *C 11.488 12.792
*I *47:A2 I *L 0.567721 *C 12.096 14.616
*N *103:3 *C 12.096 14.630
*N *103:4 *C 12.096 14.768
*N *103:5 *C 11.640 14.768
*N *103:6 *C 11.640 12.792
*N *103:7 *C 11.489 12.792
*N *103:8 *C 11.488 12.652
*N *103:9 *C 11.475 12.640
*N *103:10 *C 10.590 12.640
*N *103:11 *C 10.576 12.640
*N *103:12 *C 10.576 12.780

*CAP
0 *40:Y 0.001
1 *32:A3 0.001
2 *47:A2 0.001
3 *103:3 0.00853226
4 *103:4 0.03036354
5 *103:5 0.1278262
6 *103:6 0.1165145
7 *103:7 0.01603864
8 *103:8 0.009585186
9 *103:9 0.03399419
10 *103:10 0.03399419
11 *103:11 0.009454328
12 *103:12 0.008310796

*RES
0 *40:Y *103:12 1
1 *103:3 *47:A2 1
2 *103:7 *32:A3 1
3 *103:7 *103:6 0.2696429
4 *103:8 *103:7 0.2325
5 *103:9 *103:8 0.5
6 *103:11 *103:10 0.5
7 *103:10 *103:9 1.580357
8 *103:12 *103:11 0.2325
9 *103:6 *103:5 3.528572
10 *103:5 *103:4 0.8142858
11 *103:4 *103:3 0.2473214

*END

*D_NET *104 0.6596106 //LENGTH 8.473 LUMPCC 0 DR

*CONN
*I *39:Y O *L 0 *C 12.674 7.928
*I *32:A1 I *L 0.621599 *C 11.944 12.944
*I *47:A1 I *L 0.621599 *C 12.248 14.464
*N *104:3 *C 12.261 14.464
*N *104:4 *C 12.400 14.464
*N *104:5 *C 11.944 12.945
*N *104:6 *C 11.944 13.552
*N *104:7 *C 12.095 13.552
*N *104:8 *C 12.110 13.552
*N *104:9 *C 12.386 13.552
*N *104:10 *C 12.400 13.552
*N *104:11 *C 12.400 7.942
*N *104:12 *C 12.415 7.928

*CAP
0 *39:Y 0.02051813
1 *32:A1 0.001
2 *47:A1 0.001
3 *104:3 0.005667817
4 *104:4 0.04340725
5 *104:5 0.0341608
6 *104:6 0.04394748
7 *104:7 0.005085077
8 *104:8 0.01140277
9 *104:9 0.01140277
10 *104:10 0.2488633
11 *104:11 0.2142313
12 *104:12 0.01892401

*RES
0 *39:Y *104:12 0.5180001
1 *104:12 *104:11 1
2 *104:11 *104:10 10.01875
3 *104:3 *47:A1 1
4 *104:10 *104:9 0.5
5 *104:10 *104:4 1.628572
6 *104:9 *104:8 0.4946429
7 *104:7 *104:6 0.2696429
8 *104:8 *104:7 0.5
9 *104:5 *32:A1 1
10 *104:6 *104:5 1.083929
11 *104:4 *104:3 0.2473214

*END

*D_NET *105 0.2249005 //LENGTH 2.420 LUMPCC 0 DR

*CONN
*I *73:Y O *L 0 *C 9.208 4.280
*I *61:A2 I *L 0.483357 *C 9.487 6.281
*N *105:2 *C 9.223 6.256
*N *105:3 *C 9.208 6.243
*N *105:4 *C 9.208 4.293

*CAP
0 *73:Y 0.001
1 *61:A2 0.02299518
2 *105:2 0.02140105
3 *105:3 0.09041634
4 *105:4 0.0890879

*RES
0 *73:Y *105:4 1
1 *105:2 *61:A2 0.5280001
2 *105:3 *105:2 1
3 *105:4 *105:3 3.480357

*END

*D_NET *106 0.3331695 //LENGTH 4.523 LUMPCC 0 DR

*CONN
*I *52:Y O *L 0 *C 14.528 17.960
*I *80:A2 I *L 0.483357 *C 12.096 17.808
*I *36:A2 I *L 0.567721 *C 12.096 16.136
*N *106:3 *C 12.096 16.149
*N *106:4 *C 12.096 17.794
*N *106:5 *C 12.110 17.808
*N *106:6 *C 14.514 17.808
*N *106:7 *C 14.528 17.808
*N *106:8 *C 14.528 17.948

*CAP
0 *52:Y 0.001
1 *80:A2 0.001
2 *36:A2 0.001
3 *106:3 0.07390723
4 *106:4 0.0707785
5 *106:5 0.07820835
6 *106:6 0.07969088
7 *106:7 0.01436401
8 *106:8 0.01322048

*RES
0 *52:Y *106:8 1
1 *106:4 *80:A2 1
2 *106:4 *106:3 2.9375
3 *106:5 *106:4 0.5
4 *106:7 *106:6 0.5
5 *106:6 *106:5 4.294643
6 *106:8 *106:7 0.2325
7 *106:3 *36:A2 1

*END

*D_NET *107 0.2522342 //LENGTH 2.582 LUMPCC 0 DR

*CONN
*I *63:Y O *L 0 *C 15.704 17.960
*I *53:A1 I *L 0.564384 *C 14.710 19.353
*N *107:2 *C 14.969 19.328
*N *107:3 *C 14.984 19.315
*N *107:4 *C 14.984 17.974
*N *107:5 *C 14.999 17.960

*CAP
0 *63:Y 0.0436729
1 *53:A1 0.01767169
2 *107:2 0.01607756
3 *107:3 0.06636663
4 *107:4 0.06636663
5 *107:5 0.04207878

*RES
0 *63:Y *107:5 1.41
1 *107:2 *53:A1 0.5180001
2 *107:3 *107:2 1
3 *107:5 *107:4 1
4 *107:4 *107:3 2.394643

*END

*D_NET *108 0.348092 //LENGTH 4.402 LUMPCC 0 DR

*CONN
*I *83:Y O *L 0 *C 17.090 21.304
*I *53:A2 I *L 0.483357 *C 14.857 19.657
*N *108:2 *C 15.744 19.500
*N *108:3 *C 15.744 19.632
*N *108:4 *C 15.744 19.620
*N *108:5 *C 15.758 19.632
*N *108:6 *C 16.947 19.632
*N *108:7 *C 16.960 19.646
*N *108:8 *C 16.960 21.291
*N *108:9 *C 16.973 21.304

*CAP
0 *83:Y 0.01437103
1 *53:A2 0.0422454
2 *108:2 0.01127746
3 *108:3 0.04700767
4 *108:4 0.00642177
5 *108:5 0.03735513
6 *108:6 0.03883766
7 *108:7 0.06880703
8 *108:8 0.06899194
9 *108:9 0.0127769

*RES
0 *83:Y *108:9 0.195
1 *108:3 *53:A2 1.774
2 *108:4 *108:3 1
3 *108:4 *108:2 0.1991667
4 *108:5 *108:4 0.5
5 *108:7 *108:6 0.5
6 *108:6 *108:5 2.123214
7 *108:9 *108:8 1
8 *108:8 *108:7 2.9375

*END

*D_NET *109 0.1630069 //LENGTH 2.111 LUMPCC 0 DR

*CONN
*I *74:Y O *L 0 *C 15.440 23.128
*I *46:A1 I *L 0.564384 *C 15.166 24.825
*N *109:2 *C 15.425 24.800
*N *109:3 *C 15.440 24.787
*N *109:4 *C 15.440 23.142

*CAP
0 *74:Y 0.001
1 *46:A1 0.01658772
2 *109:2 0.01499359
3 *109:3 0.06587702
4 *109:4 0.06454858

*RES
0 *74:Y *109:4 1
1 *109:2 *46:A1 0.5180001
2 *109:3 *109:2 1
3 *109:4 *109:3 2.9375

*END

*D_NET *110 0.1557796 //LENGTH 1.500 LUMPCC 0 DR

*CONN
*I *80:Y O *L 0 *C 11.822 17.960
*I *86:A1 I *L 0.564384 *C 13.160 18.097
*N *110:2 *C 13.160 17.960

*CAP
0 *80:Y 0.06931263
1 *86:A1 0.008577175
2 *110:2 0.07788981

*RES
0 *80:Y *110:2 2.676001
1 *110:2 *86:A1 0.224

*END

*D_NET *111 0.2137943 //LENGTH 2.420 LUMPCC 0 DR

*CONN
*I *36:Y O *L 0 *C 12.400 16.136
*I *86:A2 I *L 0.483357 *C 12.983 17.833
*N *111:2 *C 12.415 17.808
*N *111:3 *C 12.400 17.794
*N *111:4 *C 12.400 16.149

*CAP
0 *36:Y 0.001
1 *86:A2 0.03354143
2 *111:2 0.0319473
3 *111:3 0.07431698
4 *111:4 0.07298854

*RES
0 *36:Y *111:4 1
1 *111:2 *86:A2 1.136
2 *111:3 *111:2 1
3 *111:4 *111:3 2.9375

*END

*D_NET *112 0.2069014 //LENGTH 2.844 LUMPCC 0 DR

*CONN
*I *64:Y O *L 0 *C 14.376 22.824
*I *49:A1 I *L 0.564384 *C 13.920 24.800
*N *112:2 *C 13.920 24.668
*N *112:3 *C 13.920 24.788
*N *112:4 *C 13.934 24.800
*N *112:5 *C 14.363 24.800
*N *112:6 *C 14.376 24.787
*N *112:7 *C 14.376 22.838

*CAP
0 *64:Y 0.001
1 *49:A1 0.001
2 *112:2 0.009553841
3 *112:3 0.003369713
4 *112:4 0.01650908
5 *112:5 0.01799161
6 *112:6 0.07931034
7 *112:7 0.07816682

*RES
0 *64:Y *112:7 1
1 *112:3 *49:A1 1
2 *112:3 *112:2 0.1991667
3 *112:4 *112:3 0.5
4 *112:6 *112:5 0.5
5 *112:5 *112:4 0.7660714
6 *112:7 *112:6 3.480358

*END

*D_NET *113 0.08949134 //LENGTH 1.481 LUMPCC 0 DR

*CONN
*I *46:Y O *L 0 *C 14.984 24.648
*I *49:A2 I *L 0.483357 *C 14.072 24.496
*N *113:2 *C 14.072 24.364
*N *113:3 *C 14.072 24.484
*N *113:4 *C 14.086 24.496
*N *113:5 *C 14.971 24.496
*N *113:6 *C 14.984 24.496
*N *113:7 *C 14.984 24.636

*CAP
0 *46:Y 0.001
1 *49:A2 0.001
2 *113:2 0.00991222
3 *113:3 0.003860936
4 *113:4 0.0286908
5 *113:5 0.03017333
6 *113:6 0.00799879
7 *113:7 0.006855258

*RES
0 *46:Y *113:7 1
1 *113:3 *49:A2 1